opendss/LVTestCase/data/PV/PV_610.txt
New generator.m_gen53 Phases=1 Bus1=899.2 kV=0.23 kW=1 PF=0.95 Yearly=PV_Shape_23
New generator.m_gen3 Phases=1 Bus1=70.1 kV=0.23 kW=1 PF=0.95 Yearly=PV_Shape_39
New generator.m_gen8 Phases=1 Bus1=208.3 kV=0.23 kW=1 PF=0.95 Yearly=PV_Shape_35
New generator.m_gen24 Phases=1 Bus1=458.3 kV=0.23 kW=1 PF=0.95 Yearly=PV_Shape_53
New generator.m_gen37 Phases=1 Bus1=682.2 kV=0.23 kW=1 PF=0.95 Yearly=PV_Shape_137
New generator.m_gen15 Phases=1 Bus1=314.2 kV=0.23 kW=1 PF=0.95 Yearly=PV_Shape_122
New generator.m_gen7 Phases=1 Bus1=178.2 kV=0.23 kW=1 PF=0.95 Yearly=NM_Shape_34
New generator.m_gen25 Phases=1 Bus1=502.1 kV=0.23 kW=1 PF=0.95 Yearly=PV_Shape_14
New generator.m_gen36 Phases=1 Bus1=676.2 kV=0.23 kW=1 PF=0.95 Yearly=PV_Shape_36
New generator.m_gen42 Phases=1 Bus1=778.3 kV=0.23 kW=1 PF=0.95 Yearly=PV_Shape_24
New generator.m_gen52 Phases=1 Bus1=898.1 kV=0.23 kW=1 PF=0.95 Yearly=PV_Shape_113
New generator.m_gen30 Phases=1 Bus1=563.1 kV=0.23 kW=1 PF=0.95 Yearly=PV_Shape_83
New generator.m_gen45 Phases=1 Bus1=813.2 kV=0.23 kW=1 PF=0.95 Yearly=PV_Shape_92
New generator.m_gen14 Phases=1 Bus1=289.1 kV=0.23 kW=1 PF=0.95 Yearly=PV_Shape_112
New generator.m_gen31 Phases=1 Bus1=611.1 kV=0.23 kW=1 PF=0.95 Yearly=PV_Shape_125
New generator.m_gen50 Phases=1 Bus1=886.2 kV=0.23 kW=1 PF=0.95 Yearly=PV_Shape_138
New generator.m_gen51 Phases=1 Bus1=896.1 kV=0.23 kW=1 PF=0.95 Yearly=PV_Shape_65
New generator.m_gen11 Phases=1 Bus1=249.2 kV=0.23 kW=1 PF=0.95 Yearly=PV_Shape_47
New generator.m_gen10 Phases=1 Bus1=248.2 kV=0.23 kW=1 PF=0.95 Yearly=PV_Shape_90
New generator.m_gen21 Phases=1 Bus1=387.1 kV=0.23 kW=1 PF=0.95 Yearly=PV_Shape_159
New generator.m_gen19 Phases=1 Bus1=342.3 kV=0.23 kW=1 PF=0.95 Yearly=PV_Shape_153
New generator.m_gen28 Phases=1 Bus1=556.3 kV=0.23 kW=1 PF=0.95 Yearly=PV_Shape_101
New generator.m_gen5 Phases=1 Bus1=74.1 kV=0.23 kW=1 PF=0.95 Yearly=NM_Shape_94
New generator.m_gen22 Phases=1 Bus1=388.1 kV=0.23 kW=1 PF=0.95 Yearly=PV_Shape_68
New generator.m_gen40 Phases=1 Bus1=702.2 kV=0.23 kW=1 PF=0.95 Yearly=PV_Shape_134
New generator.m_gen2 Phases=1 Bus1=47.2 kV=0.23 kW=1 PF=0.95 Yearly=NM_Shape_48
New generator.m_gen4 Phases=1 Bus1=73.1 kV=0.23 kW=1 PF=0.95 Yearly=PV_Shape_3
New generator.m_gen33 Phases=1 Bus1=619.3 kV=0.23 kW=1 PF=0.95 Yearly=PV_Shape_67
New generator.m_gen54 Phases=1 Bus1=900.1 kV=0.23 kW=1 PF=0.95 Yearly=NM_Shape_13
New generator.m_gen46 Phases=1 Bus1=817.1 kV=0.23 kW=1 PF=0.95 Yearly=NM_Shape_152
New generator.m_gen20 Phases=1 Bus1=349.1 kV=0.23 kW=1 PF=0.95 Yearly=NM_Shape_79
New generator.m_gen27 Phases=1 Bus1=539.3 kV=0.23 kW=1 PF=0.95 Yearly=PV_Shape_160
New generator.m_gen34 Phases=1 Bus1=629.1 kV=0.23 kW=1 PF=0.95 Yearly=PV_Shape_86
New generator.m_gen17 Phases=1 Bus1=327.3 kV=0.23 kW=1 PF=0.95 Yearly=PV_Shape_109
New generator.m_gen39 Phases=1 Bus1=701.3 kV=0.23 kW=1 PF=0.95 Yearly=NM_Shape_99
New generator.m_gen13 Phases=1 Bus1=276.2 kV=0.23 kW=1 PF=0.95 Yearly=PV_Shape_17
New generator.m_gen35 Phases=1 Bus1=639.2 kV=0.23 kW=1 PF=0.95 Yearly=PV_Shape_149
New generator.m_gen1 Phases=1 Bus1=34.1 kV=0.23 kW=1 PF=0.95 Yearly=PV_Shape_129
